/*--------------------------------*- C++ -*----------------------------------*\
| =========                 |                                                 |
| \\      /  F ield         | OpenFOAM: The Open Source CFD Toolbox           |
|  \\    /   O peration     | Version:  2006                                  |
|   \\  /    A nd           | Website:  www.openfoam.com                      |
|    \\/     M anipulation  |                                                 |
\*---------------------------------------------------------------------------*/
FoamFile
{
    version     2.0;
    format      ascii;
    class       polyBoundaryMesh;
    location    "constant/polyMesh";
    object      boundary;
}
// * * * * * * * * * * * * * * * * * * * * * * * * * * * * * * * * * * * * * //

6
(
    inlet
    {
        type            patch;
        nFaces          80;
        startFace       19696;
    }
    outlet
    {
        type            patch;
        nFaces          80;
        startFace       19776;
    }
    triangle
    {
        type            wall;
        inGroups        1(wall);
        nFaces          36;
        startFace       19856;
    }
    upperWall
    {
        type            wall;
        inGroups        1(wall);
        nFaces          132;
        startFace       19892;
    }
    lowerWall
    {
        type            wall;
        inGroups        1(wall);
        nFaces          120;
        startFace       20024;
    }
    defaultFaces
    {
        type            empty;
        inGroups        1(empty);
        nFaces          19920;
        startFace       20144;
    }
)

// ************************************************************************* //
