/*--------------------------------*- C++ -*----------------------------------*\
| =========                 |                                                 |
| \\      /  F ield         | OpenFOAM: The Open Source CFD Toolbox           |
|  \\    /   O peration     | Version:  2006                                  |
|   \\  /    A nd           | Website:  www.openfoam.com                      |
|    \\/     M anipulation  |                                                 |
\*---------------------------------------------------------------------------*/
FoamFile
{
    version     2.0;
    format      binary;
    class       polyBoundaryMesh;
    arch        "LSB;label=32;scalar=64";
    location    "constant/polyMesh";
    object      boundary;
}
// * * * * * * * * * * * * * * * * * * * * * * * * * * * * * * * * * * * * * //

8
(
    inlet
    {
        type            patch;
        nFaces          38;
        startFace       5012;
    }
    outlet
    {
        type            patch;
        nFaces          0;
        startFace       5050;
    }
    triangle
    {
        type            wall;
        inGroups        1(wall);
        nFaces          28;
        startFace       5050;
    }
    upperWall
    {
        type            wall;
        inGroups        1(wall);
        nFaces          70;
        startFace       5078;
    }
    lowerWall
    {
        type            wall;
        inGroups        1(wall);
        nFaces          0;
        startFace       5148;
    }
    defaultFaces
    {
        type            empty;
        inGroups        1(empty);
        nFaces          5128;
        startFace       5148;
    }
    procBoundary2to0
    {
        type            processor;
        inGroups        1(processor);
        nFaces          58;
        startFace       10276;
        matchTolerance  0.0001;
        transform       unknown;
        myProcNo        2;
        neighbProcNo    0;
    }
    procBoundary2to3
    {
        type            processor;
        inGroups        1(processor);
        nFaces          38;
        startFace       10334;
        matchTolerance  0.0001;
        transform       unknown;
        myProcNo        2;
        neighbProcNo    3;
    }
)

// ************************************************************************* //
