/*--------------------------------*- C++ -*----------------------------------*\
| =========                 |                                                 |
| \\      /  F ield         | OpenFOAM: The Open Source CFD Toolbox           |
|  \\    /   O peration     | Version:  2006                                  |
|   \\  /    A nd           | Website:  www.openfoam.com                      |
|    \\/     M anipulation  |                                                 |
\*---------------------------------------------------------------------------*/
FoamFile
{
    version     2.0;
    format      binary;
    class       polyBoundaryMesh;
    arch        "LSB;label=32;scalar=64";
    location    "constant/polyMesh";
    object      boundary;
}
// * * * * * * * * * * * * * * * * * * * * * * * * * * * * * * * * * * * * * //

8
(
    inlet
    {
        type            patch;
        nFaces          0;
        startFace       5023;
    }
    outlet
    {
        type            patch;
        nFaces          41;
        startFace       5023;
    }
    triangle
    {
        type            wall;
        inGroups        1(wall);
        nFaces          0;
        startFace       5064;
    }
    upperWall
    {
        type            wall;
        inGroups        1(wall);
        nFaces          0;
        startFace       5064;
    }
    lowerWall
    {
        type            wall;
        inGroups        1(wall);
        nFaces          63;
        startFace       5064;
    }
    defaultFaces
    {
        type            empty;
        inGroups        1(empty);
        nFaces          5128;
        startFace       5127;
    }
    procBoundary1to0
    {
        type            processor;
        inGroups        1(processor);
        nFaces          43;
        startFace       10255;
        matchTolerance  0.0001;
        transform       unknown;
        myProcNo        1;
        neighbProcNo    0;
    }
    procBoundary1to3
    {
        type            processor;
        inGroups        1(processor);
        nFaces          63;
        startFace       10298;
        matchTolerance  0.0001;
        transform       unknown;
        myProcNo        1;
        neighbProcNo    3;
    }
)

// ************************************************************************* //
