/*--------------------------------*- C++ -*----------------------------------*\
| =========                 |                                                 |
| \\      /  F ield         | OpenFOAM: The Open Source CFD Toolbox           |
|  \\    /   O peration     | Version:  2006                                  |
|   \\  /    A nd           | Website:  www.openfoam.com                      |
|    \\/     M anipulation  |                                                 |
\*---------------------------------------------------------------------------*/
FoamFile
{
    version     2.0;
    format      binary;
    class       polyBoundaryMesh;
    arch        "LSB;label=32;scalar=64";
    location    "constant/polyMesh";
    object      boundary;
}
// * * * * * * * * * * * * * * * * * * * * * * * * * * * * * * * * * * * * * //

8
(
    inlet
    {
        type            patch;
        nFaces          42;
        startFace       4728;
    }
    outlet
    {
        type            patch;
        nFaces          0;
        startFace       4770;
    }
    triangle
    {
        type            wall;
        inGroups        1(wall);
        nFaces          8;
        startFace       4770;
    }
    upperWall
    {
        type            wall;
        inGroups        1(wall);
        nFaces          0;
        startFace       4778;
    }
    lowerWall
    {
        type            wall;
        inGroups        1(wall);
        nFaces          57;
        startFace       4778;
    }
    defaultFaces
    {
        type            empty;
        inGroups        1(empty);
        nFaces          4832;
        startFace       4835;
    }
    procBoundary0to1
    {
        type            processor;
        inGroups        1(processor);
        nFaces          43;
        startFace       9667;
        matchTolerance  0.0001;
        transform       unknown;
        myProcNo        0;
        neighbProcNo    1;
    }
    procBoundary0to2
    {
        type            processor;
        inGroups        1(processor);
        nFaces          58;
        startFace       9710;
        matchTolerance  0.0001;
        transform       unknown;
        myProcNo        0;
        neighbProcNo    2;
    }
)

// ************************************************************************* //
